@<TRIPOS>MOLECULE
Optimize at B3LYP-D3(BJ)/6-31G* level
 17 18 0 0 0
SMALL
GASTEIGER

@<TRIPOS>ATOM
      1 C          -3.0015   -0.7278    0.2024 C.ar    1  UNL1        0.0022
      2 C          -3.1812    0.5870   -0.1781 C.ar    1  UNL1       -0.0438
      3 C          -1.8942    1.1732   -0.3070 C.ar    1  UNL1       -0.0359
      4 C          -0.9513    0.2017    0.0022 C.ar    1  UNL1        0.0531
      5 N          -1.6505   -0.9533    0.3011 N.ar    1  UNL1       -0.3603
      6 H          -1.2246   -1.8022    0.6418 H       1  UNL1        0.1653
      7 H          -3.7143   -1.5124    0.4085 H       1  UNL1        0.0807
      8 H          -4.1321    1.0695   -0.3565 H       1  UNL1        0.0633
      9 H          -1.6657    2.1812   -0.6235 H       1  UNL1        0.0639
     10 C           0.4928    0.2654    0.0338 C.ar    1  UNL1        0.0354
     11 C           1.2964    1.3645    0.2329 C.ar    1  UNL1       -0.0455
     12 S           1.4773   -1.1670   -0.2297 S.2     1  UNL1       -0.0952
     13 C           2.6896    1.0643    0.1878 C.ar    1  UNL1       -0.0541
     14 H           0.8937    2.3509    0.4323 H       1  UNL1        0.0629
     15 C           2.9474   -0.2594   -0.0353 C.ar    1  UNL1       -0.0237
     16 H           3.4683    1.8051    0.3323 H       1  UNL1        0.0623
     17 H           3.9036   -0.7597   -0.0995 H       1  UNL1        0.0693
@<TRIPOS>BOND
     1     1     2   ar
     2     1     5   ar
     3     1     7    1
     4     2     3   ar
     5     2     8    1
     6     3     4   ar
     7     3     9    1
     8     4     5   ar
     9     4    10    1
    10     5     6    1
    11    10    11   ar
    12    10    12   ar
    13    11    13   ar
    14    11    14    1
    15    12    15   ar
    16    13    15   ar
    17    13    16    1
    18    15    17    1
