@<TRIPOS>MOLECULE
Optimize
   17    18     1     0     0
SMALL
No Charge or Current Charge


@<TRIPOS>ATOM
      1 C           -3.0020    -0.7280     0.2020 cc         1 UNL       0.002200
      2 C1          -3.1810     0.5870    -0.1780 cd         1 UNL      -0.043800
      3 C2          -1.8940     1.1730    -0.3070 cd         1 UNL      -0.035900
      4 C3          -0.9510     0.2020     0.0020 cc         1 UNL       0.053100
      5 N           -1.6510    -0.9530     0.3010 na         1 UNL      -0.360300
      6 H           -1.2250    -1.8020     0.6420 hn         1 UNL       0.165300
      7 H1          -3.7140    -1.5120     0.4080 h4         1 UNL       0.080700
      8 H2          -4.1320     1.0690    -0.3560 ha         1 UNL       0.063300
      9 H3          -1.6660     2.1810    -0.6240 ha         1 UNL       0.063900
     10 C4           0.4930     0.2650     0.0340 cc         1 UNL       0.035400
     11 C5           1.2960     1.3650     0.2330 cd         1 UNL      -0.045500
     12 S            1.4770    -1.1670    -0.2300 ss         1 UNL      -0.095200
     13 C6           2.6900     1.0640     0.1880 cd         1 UNL      -0.054100
     14 H4           0.8940     2.3510     0.4320 ha         1 UNL       0.062900
     15 C7           2.9470    -0.2590    -0.0350 cc         1 UNL      -0.023700
     16 H5           3.4680     1.8050     0.3320 ha         1 UNL       0.062300
     17 H6           3.9040    -0.7600    -0.1000 h4         1 UNL       0.069300
@<TRIPOS>BOND
     1     1     2 2   
     2     1     5 1   
     3     1     7 1   
     4     2     3 1   
     5     2     8 1   
     6     3     4 2   
     7     3     9 1   
     8     4     5 1   
     9     4    10 1   
    10     5     6 1   
    11    10    11 2   
    12    10    12 1   
    13    11    13 1   
    14    11    14 1   
    15    12    15 1   
    16    13    15 2   
    17    13    16 1   
    18    15    17 1   
@<TRIPOS>SUBSTRUCTURE
     1 UNL         1 TEMP              0 ****  ****    0 ROOT
